DATABASE phreeqc.dat
#database phreeqc.dat # contains Dw's since version 2.17
SOLUTION 0
    temp      25
    pH        4 charge
    pe        4
    redox     pe
    units     mmol/kgw
    density   1
    N(5)      0.1
    Na        0.1
    Cl        0.1
    -water    1 # kg
END
SOLUTION 1-1000
    temp      25
    pH        6
    pe        4
    redox     pe
    units     mmol/kgw
    density   1
    N(5)      0.001
    Na        0.1
    Cl        0.1
    -water    1 # kg
END
SELECTED_OUTPUT
    -file                 NaClHNO3-TS.out
    -reset                false
    -distance             true
    -time                 true
    -charge_balance       true
    -totals               Cl  Na  N(5)
    -molalities           H+

PRINT
    -echo_input            false
    -eh                    false
    -equilibrium_phases    false
    -exchange              false
    -gas_phase             false
    -headings              false
    -inverse               false
    -kinetics              false
    -other                 false
    -saturation_indices    false
    -solid_solutions       false
    -species               false
    -surface               false
    -totals                false
    -user_print            false
    -warnings              100
TRANSPORT
    -cells                 1000
    -time_step             8640000 1 # seconds
    -flow_direction        diffusion_only
    -boundary_conditions   constant  flux 
    -lengths               3.162E-02	1.310E-02	1.005E-02	8.473E-03	7.465E-03	6.749E-03	6.206E-03	5.777E-03	5.426E-03	5.132E-03	4.881E-03	4.664E-03	4.473E-03	4.304E-03	4.153E-03	4.017E-03	3.893E-03	3.780E-03	3.676E-03	3.581E-03	3.492E-03	3.410E-03	3.334E-03	3.262E-03	3.195E-03	3.131E-03	3.072E-03	3.015E-03	2.962E-03	2.911E-03	2.863E-03	2.817E-03	2.774E-03	2.732E-03	2.692E-03	2.654E-03	2.617E-03	2.582E-03	2.548E-03	2.516E-03	2.485E-03	2.454E-03	2.425E-03	2.397E-03	2.370E-03	2.344E-03	2.319E-03	2.294E-03	2.270E-03	2.247E-03	2.225E-03	2.203E-03	2.182E-03	2.162E-03	2.142E-03	2.122E-03	2.104E-03	2.085E-03	2.067E-03	2.050E-03	2.033E-03	2.016E-03	2.000E-03	1.984E-03	1.969E-03	1.954E-03	1.939E-03	1.925E-03	1.910E-03	1.897E-03	1.883E-03	1.870E-03	1.857E-03	1.844E-03	1.832E-03	1.820E-03	1.808E-03	1.796E-03	1.785E-03	1.773E-03	1.762E-03	1.751E-03	1.741E-03	1.730E-03	1.720E-03	1.710E-03	1.700E-03	1.690E-03	1.681E-03	1.671E-03	1.662E-03	1.653E-03	1.644E-03	1.635E-03	1.627E-03	1.618E-03	1.610E-03	1.601E-03	1.593E-03	1.585E-03	1.577E-03	1.569E-03	1.562E-03	1.554E-03	1.547E-03	1.539E-03	1.532E-03	1.525E-03	1.518E-03	1.511E-03	1.504E-03	1.497E-03	1.491E-03	1.484E-03	1.478E-03	1.471E-03	1.465E-03	1.459E-03	1.452E-03	1.446E-03	1.440E-03	1.434E-03	1.429E-03	1.423E-03	1.417E-03	1.411E-03	1.406E-03	1.400E-03	1.395E-03	1.389E-03	1.384E-03	1.379E-03	1.374E-03	1.368E-03	1.363E-03	1.358E-03	1.353E-03	1.348E-03	1.344E-03	1.339E-03	1.334E-03	1.329E-03	1.325E-03	1.320E-03	1.315E-03	1.311E-03	1.306E-03	1.302E-03	1.298E-03	1.293E-03	1.289E-03	1.285E-03	1.280E-03	1.276E-03	1.272E-03	1.268E-03	1.264E-03	1.260E-03	1.256E-03	1.252E-03	1.248E-03	1.244E-03	1.240E-03	1.237E-03	1.233E-03	1.229E-03	1.225E-03	1.222E-03	1.218E-03	1.214E-03	1.211E-03	1.207E-03	1.204E-03	1.200E-03	1.197E-03	1.194E-03	1.190E-03	1.187E-03	1.183E-03	1.180E-03	1.177E-03	1.174E-03	1.170E-03	1.167E-03	1.164E-03	1.161E-03	1.158E-03	1.155E-03	1.152E-03	1.149E-03	1.146E-03	1.143E-03	1.140E-03	1.137E-03	1.134E-03	1.131E-03	1.128E-03	1.125E-03	1.122E-03	1.119E-03	1.117E-03	1.114E-03	1.111E-03	1.108E-03	1.106E-03	1.103E-03	1.100E-03	1.098E-03	1.095E-03	1.092E-03	1.090E-03	1.087E-03	1.085E-03	1.082E-03	1.080E-03	1.077E-03	1.075E-03	1.072E-03	1.070E-03	1.067E-03	1.065E-03	1.062E-03	1.060E-03	1.058E-03	1.055E-03	1.053E-03	1.051E-03	1.048E-03	1.046E-03	1.044E-03	1.041E-03	1.039E-03	1.037E-03	1.035E-03	1.033E-03	1.030E-03	1.028E-03	1.026E-03	1.024E-03	1.022E-03	1.020E-03	1.017E-03	1.015E-03	1.013E-03	1.011E-03	1.009E-03	1.007E-03	1.005E-03	1.003E-03	1.001E-03	9.990E-04	9.970E-04	9.950E-04	9.931E-04	9.911E-04	9.892E-04	9.872E-04	9.853E-04	9.834E-04	9.815E-04	9.796E-04	9.778E-04	9.759E-04	9.740E-04	9.722E-04	9.704E-04	9.685E-04	9.667E-04	9.649E-04	9.631E-04	9.614E-04	9.596E-04	9.578E-04	9.561E-04	9.543E-04	9.526E-04	9.509E-04	9.492E-04	9.475E-04	9.458E-04	9.441E-04	9.424E-04	9.407E-04	9.391E-04	9.374E-04	9.358E-04	9.341E-04	9.325E-04	9.309E-04	9.293E-04	9.277E-04	9.261E-04	9.245E-04	9.229E-04	9.214E-04	9.198E-04	9.182E-04	9.167E-04	9.152E-04	9.136E-04	9.121E-04	9.106E-04	9.091E-04	9.076E-04	9.061E-04	9.046E-04	9.031E-04	9.017E-04	9.002E-04	8.988E-04	8.973E-04	8.959E-04	8.944E-04	8.930E-04	8.916E-04	8.902E-04	8.888E-04	8.874E-04	8.860E-04	8.846E-04	8.832E-04	8.818E-04	8.805E-04	8.791E-04	8.777E-04	8.764E-04	8.750E-04	8.737E-04	8.724E-04	8.710E-04	8.697E-04	8.684E-04	8.671E-04	8.658E-04	8.645E-04	8.632E-04	8.619E-04	8.607E-04	8.594E-04	8.581E-04	8.569E-04	8.556E-04	8.544E-04	8.531E-04	8.519E-04	8.506E-04	8.494E-04	8.482E-04	8.470E-04	8.458E-04	8.446E-04	8.433E-04	8.422E-04	8.410E-04	8.398E-04	8.386E-04	8.374E-04	8.362E-04	8.351E-04	8.339E-04	8.328E-04	8.316E-04	8.305E-04	8.293E-04	8.282E-04	8.270E-04	8.259E-04	8.248E-04	8.237E-04	8.226E-04	8.214E-04	8.203E-04	8.192E-04	8.181E-04	8.170E-04	8.160E-04	8.149E-04	8.138E-04	8.127E-04	8.116E-04	8.106E-04	8.095E-04	8.085E-04	8.074E-04	8.063E-04	8.053E-04	8.043E-04	8.032E-04	8.022E-04	8.012E-04	8.001E-04	7.991E-04	7.981E-04	7.971E-04	7.961E-04	7.951E-04	7.941E-04	7.931E-04	7.921E-04	7.911E-04	7.901E-04	7.891E-04	7.881E-04	7.871E-04	7.862E-04	7.852E-04	7.842E-04	7.833E-04	7.823E-04	7.813E-04	7.804E-04	7.794E-04	7.785E-04	7.776E-04	7.766E-04	7.757E-04	7.748E-04	7.738E-04	7.729E-04	7.720E-04	7.711E-04	7.701E-04	7.692E-04	7.683E-04	7.674E-04	7.665E-04	7.656E-04	7.647E-04	7.638E-04	7.629E-04	7.621E-04	7.612E-04	7.603E-04	7.594E-04	7.585E-04	7.577E-04	7.568E-04	7.559E-04	7.551E-04	7.542E-04	7.534E-04	7.525E-04	7.516E-04	7.508E-04	7.500E-04	7.491E-04	7.483E-04	7.474E-04	7.466E-04	7.458E-04	7.449E-04	7.441E-04	7.433E-04	7.425E-04	7.417E-04	7.408E-04	7.400E-04	7.392E-04	7.384E-04	7.376E-04	7.368E-04	7.360E-04	7.352E-04	7.344E-04	7.336E-04	7.328E-04	7.321E-04	7.313E-04	7.305E-04	7.297E-04	7.289E-04	7.282E-04	7.274E-04	7.266E-04	7.259E-04	7.251E-04	7.243E-04	7.236E-04	7.228E-04	7.221E-04	7.213E-04	7.206E-04	7.198E-04	7.191E-04	7.183E-04	7.176E-04	7.169E-04	7.161E-04	7.154E-04	7.147E-04	7.139E-04	7.132E-04	7.125E-04	7.117E-04	7.110E-04	7.103E-04	7.096E-04	7.089E-04	7.082E-04	7.075E-04	7.068E-04	7.060E-04	7.053E-04	7.046E-04	7.039E-04	7.032E-04	7.026E-04	7.019E-04	7.012E-04	7.005E-04	6.998E-04	6.991E-04	6.984E-04	6.977E-04	6.971E-04	6.964E-04	6.957E-04	6.950E-04	6.944E-04	6.937E-04	6.930E-04	6.924E-04	6.917E-04	6.911E-04	6.904E-04	6.897E-04	6.891E-04	6.884E-04	6.878E-04	6.871E-04	6.865E-04	6.858E-04	6.852E-04	6.845E-04	6.839E-04	6.833E-04	6.826E-04	6.820E-04	6.814E-04	6.807E-04	6.801E-04	6.795E-04	6.788E-04	6.782E-04	6.776E-04	6.770E-04	6.764E-04	6.757E-04	6.751E-04	6.745E-04	6.739E-04	6.733E-04	6.727E-04	6.721E-04	6.715E-04	6.709E-04	6.703E-04	6.696E-04	6.690E-04	6.685E-04	6.679E-04	6.673E-04	6.667E-04	6.661E-04	6.655E-04	6.649E-04	6.643E-04	6.637E-04	6.631E-04	6.626E-04	6.620E-04	6.614E-04	6.608E-04	6.602E-04	6.597E-04	6.591E-04	6.585E-04	6.580E-04	6.574E-04	6.568E-04	6.562E-04	6.557E-04	6.551E-04	6.546E-04	6.540E-04	6.534E-04	6.529E-04	6.523E-04	6.518E-04	6.512E-04	6.507E-04	6.501E-04	6.496E-04	6.490E-04	6.485E-04	6.479E-04	6.474E-04	6.468E-04	6.463E-04	6.458E-04	6.452E-04	6.447E-04	6.442E-04	6.436E-04	6.431E-04	6.426E-04	6.420E-04	6.415E-04	6.410E-04	6.404E-04	6.399E-04	6.394E-04	6.389E-04	6.384E-04	6.378E-04	6.373E-04	6.368E-04	6.363E-04	6.358E-04	6.353E-04	6.347E-04	6.342E-04	6.337E-04	6.332E-04	6.327E-04	6.322E-04	6.317E-04	6.312E-04	6.307E-04	6.302E-04	6.297E-04	6.292E-04	6.287E-04	6.282E-04	6.277E-04	6.272E-04	6.267E-04	6.262E-04	6.257E-04	6.252E-04	6.248E-04	6.243E-04	6.238E-04	6.233E-04	6.228E-04	6.223E-04	6.219E-04	6.214E-04	6.209E-04	6.204E-04	6.199E-04	6.195E-04	6.190E-04	6.185E-04	6.180E-04	6.176E-04	6.171E-04	6.166E-04	6.162E-04	6.157E-04	6.152E-04	6.148E-04	6.143E-04	6.138E-04	6.134E-04	6.129E-04	6.124E-04	6.120E-04	6.115E-04	6.111E-04	6.106E-04	6.102E-04	6.097E-04	6.093E-04	6.088E-04	6.084E-04	6.079E-04	6.075E-04	6.070E-04	6.066E-04	6.061E-04	6.057E-04	6.052E-04	6.048E-04	6.043E-04	6.039E-04	6.035E-04	6.030E-04	6.026E-04	6.021E-04	6.017E-04	6.013E-04	6.008E-04	6.004E-04	6.000E-04	5.995E-04	5.991E-04	5.987E-04	5.983E-04	5.978E-04	5.974E-04	5.970E-04	5.966E-04	5.961E-04	5.957E-04	5.953E-04	5.949E-04	5.944E-04	5.940E-04	5.936E-04	5.932E-04	5.928E-04	5.923E-04	5.919E-04	5.915E-04	5.911E-04	5.907E-04	5.903E-04	5.899E-04	5.895E-04	5.891E-04	5.886E-04	5.882E-04	5.878E-04	5.874E-04	5.870E-04	5.866E-04	5.862E-04	5.858E-04	5.854E-04	5.850E-04	5.846E-04	5.842E-04	5.838E-04	5.834E-04	5.830E-04	5.826E-04	5.822E-04	5.818E-04	5.814E-04	5.810E-04	5.807E-04	5.803E-04	5.799E-04	5.795E-04	5.791E-04	5.787E-04	5.783E-04	5.779E-04	5.775E-04	5.772E-04	5.768E-04	5.764E-04	5.760E-04	5.756E-04	5.752E-04	5.749E-04	5.745E-04	5.741E-04	5.737E-04	5.734E-04	5.730E-04	5.726E-04	5.722E-04	5.718E-04	5.715E-04	5.711E-04	5.707E-04	5.704E-04	5.700E-04	5.696E-04	5.692E-04	5.689E-04	5.685E-04	5.681E-04	5.678E-04	5.674E-04	5.670E-04	5.667E-04	5.663E-04	5.660E-04	5.656E-04	5.652E-04	5.649E-04	5.645E-04	5.642E-04	5.638E-04	5.634E-04	5.631E-04	5.627E-04	5.624E-04	5.620E-04	5.617E-04	5.613E-04	5.609E-04	5.606E-04	5.602E-04	5.599E-04	5.595E-04	5.592E-04	5.588E-04	5.585E-04	5.581E-04	5.578E-04	5.575E-04	5.571E-04	5.568E-04	5.564E-04	5.561E-04	5.557E-04	5.554E-04	5.550E-04	5.547E-04	5.544E-04	5.540E-04	5.537E-04	5.533E-04	5.530E-04	5.527E-04	5.523E-04	5.520E-04	5.517E-04	5.513E-04	5.510E-04	5.506E-04	5.503E-04	5.500E-04	5.496E-04	5.493E-04	5.490E-04	5.487E-04	5.483E-04	5.480E-04	5.477E-04	5.473E-04	5.470E-04	5.467E-04	5.464E-04	5.460E-04	5.457E-04	5.454E-04	5.451E-04	5.447E-04	5.444E-04	5.441E-04	5.438E-04	5.434E-04	5.431E-04	5.428E-04	5.425E-04	5.422E-04	5.418E-04	5.415E-04	5.412E-04	5.409E-04	5.406E-04	5.403E-04	5.399E-04	5.396E-04	5.393E-04	5.390E-04	5.387E-04	5.384E-04	5.381E-04	5.378E-04	5.374E-04	5.371E-04	5.368E-04	5.365E-04	5.362E-04	5.359E-04	5.356E-04	5.353E-04	5.350E-04	5.347E-04	5.344E-04	5.341E-04	5.338E-04	5.335E-04	5.332E-04	5.329E-04	5.325E-04	5.322E-04	5.319E-04	5.316E-04	5.313E-04	5.310E-04	5.307E-04	5.304E-04	5.301E-04	5.299E-04	5.296E-04	5.293E-04	5.290E-04	5.287E-04	5.284E-04	5.281E-04	5.278E-04	5.275E-04	5.272E-04	5.269E-04	5.266E-04	5.263E-04	5.260E-04	5.257E-04	5.254E-04	5.252E-04	5.249E-04	5.246E-04	5.243E-04	5.240E-04	5.237E-04	5.234E-04	5.231E-04	5.229E-04	5.226E-04	5.223E-04	5.220E-04	5.217E-04	5.214E-04	5.211E-04	5.209E-04	5.206E-04	5.203E-04	5.200E-04	5.197E-04	5.195E-04	5.192E-04	5.189E-04	5.186E-04	5.183E-04	5.181E-04	5.178E-04	5.175E-04	5.172E-04	5.169E-04	5.167E-04	5.164E-04	5.161E-04	5.158E-04	5.156E-04	5.153E-04	5.150E-04	5.148E-04	5.145E-04	5.142E-04	5.139E-04	5.137E-04	5.134E-04	5.131E-04	5.129E-04	5.126E-04	5.123E-04	5.120E-04	5.118E-04	5.115E-04	5.112E-04	5.110E-04	5.107E-04	5.104E-04	5.102E-04	5.099E-04	5.096E-04	5.094E-04	5.091E-04	5.089E-04	5.086E-04	5.083E-04	5.081E-04	5.078E-04	5.075E-04	5.073E-04	5.070E-04	5.068E-04	5.065E-04	5.062E-04	5.060E-04	5.057E-04	5.055E-04	5.052E-04	5.049E-04	5.047E-04	5.044E-04	5.042E-04	5.039E-04	5.037E-04	5.034E-04	5.032E-04	5.029E-04	5.026E-04	5.024E-04	5.021E-04	5.019E-04	5.016E-04	5.014E-04	5.011E-04	5.009E-04	5.006E-04	5.004E-04	5.001E-04
    -warnings              false
    -multi_d               true 1e-009 1 0 1
END


